
     RDKit          2D

 16 16  0  0  0  0  0  0  0  0999 V2000
    2.7760    0.0000    0.0000 C   0  0  0  0  0  0  0  0  0  0  0  0
    1.2760    0.0000    0.0000 C   0  0  0  0  0  0  0  0  0  0  0  0
    0.3943    1.2135    0.0000 C   0  0  0  0  0  0  0  0  0  0  0  0
   -1.0323    0.7500    0.0000 C   0  0  0  0  0  0  0  0  0  0  0  0
   -2.2458    1.6317    0.0000 C   0  0  0  0  0  0  0  0  0  0  0  0
   -2.0890    3.1235    0.0000 N   0  0  0  0  0  0  0  0  0  0  0  0
   -3.3025    4.0051    0.0000 C   0  0  0  0  0  0  0  0  0  0  0  0
   -4.6729    3.3950    0.0000 O   0  0  0  0  0  0  0  0  0  0  0  0
   -3.1458    5.4969    0.0000 N   0  0  0  0  0  0  0  0  0  0  0  0
   -4.3593    6.3786    0.0000 C   0  0  0  0  0  0  0  0  0  0  0  0
   -4.2025    7.8704    0.0000 C   0  0  0  0  0  0  0  0  0  0  0  0
   -5.4160    8.7521    0.0000 C   0  0  0  0  0  0  0  0  0  0  0  0
   -6.7863    8.1420    0.0000 O   0  0  0  0  0  0  0  0  0  0  0  0
   -5.2592   10.2438    0.0000 O   0  0  0  0  0  0  0  0  0  0  0  0
   -1.0323   -0.7500    0.0000 N   0  0  0  0  0  0  0  0  0  0  0  0
    0.3943   -1.2135    0.0000 O   0  0  0  0  0  0  0  0  0  0  0  0
  1  2  1  0
  2  3  2  0
  3  4  1  0
  4  5  1  0
  5  6  1  0
  6  7  1  0
  7  8  2  0
  7  9  1  0
  9 10  1  0
 10 11  1  0
 11 12  1  0
 12 13  2  0
 12 14  1  0
  4 15  2  0
 15 16  1  0
 16  2  1  0
M  END
>  <smiles>  (1) 
Cc1cc(CNC(=O)NCCC(=O)O)no1

$$$$
