
     RDKit          2D

 17 16  0  0  0  0  0  0  0  0999 V2000
    0.0000    0.0000    0.0000 C   0  0  0  0  0  0  0  0  0  0  0  0
    1.2990    0.7500    0.0000 C   0  0  0  0  0  0  0  0  0  0  0  0
    2.5981   -0.0000    0.0000 C   0  0  0  0  0  0  0  0  0  0  0  0
    1.2990    2.2500    0.0000 C   0  0  0  0  0  0  0  0  0  0  0  0
    2.5981    3.0000    0.0000 C   0  0  0  0  0  0  0  0  0  0  0  0
    2.5981    4.5000    0.0000 O   0  0  0  0  0  0  0  0  0  0  0  0
   -0.0000    3.0000    0.0000 N   0  0  0  0  0  0  0  0  0  0  0  0
   -0.0000    4.5000    0.0000 C   0  0  0  0  0  0  0  0  0  0  0  0
   -1.2990    5.2500    0.0000 C   0  0  0  0  0  0  0  0  0  0  0  0
   -1.2990    6.7500    0.0000 C   0  0  0  0  0  0  0  0  0  0  0  0
   -0.0000    7.5000    0.0000 O   0  0  0  0  0  0  0  0  0  0  0  0
   -2.5981    7.5000    0.0000 O   0  0  0  0  0  0  0  0  0  0  0  0
   -2.5981    9.0000    0.0000 C   0  0  0  0  0  0  0  0  0  0  0  0
   -3.8971    9.7500    0.0000 C   0  0  0  0  0  0  0  0  0  0  0  0
   -3.8971   11.2500    0.0000 C   0  0  0  0  0  0  0  0  0  0  0  0
   -2.5981   12.0000    0.0000 O   0  0  0  0  0  0  0  0  0  0  0  0
   -5.1962   12.0000    0.0000 O   0  0  0  0  0  0  0  0  0  0  0  0
  1  2  1  0
  2  3  1  0
  2  4  1  0
  4  5  1  0
  5  6  1  0
  4  7  1  0
  7  8  1  0
  8  9  1  0
  9 10  1  0
 10 11  2  0
 10 12  1  0
 12 13  1  0
 13 14  1  0
 14 15  1  0
 15 16  2  0
 15 17  1  0
M  END
>  <smiles>  (1) 
CC(C)C(CO)NCCC(=O)OCCC(=O)O

$$$$
