
     RDKit          2D

 22 24  0  0  0  0  0  0  0  0999 V2000
   -5.9582    8.5966    0.0000 C   0  0  0  0  0  0  0  0  0  0  0  0
   -6.7082    7.2976    0.0000 C   0  0  0  0  0  0  0  0  0  0  0  0
   -8.2082    7.2976    0.0000 O   0  0  0  0  0  0  0  0  0  0  0  0
   -5.9582    5.9986    0.0000 N   0  0  0  0  0  0  0  0  0  0  0  0
   -4.4582    5.9986    0.0000 C   0  0  0  0  0  0  0  0  0  0  0  0
   -3.7082    4.6995    0.0000 C   0  0  0  0  0  0  0  0  0  0  0  0
   -4.4582    3.4005    0.0000 C   0  0  0  0  0  0  0  0  0  0  0  0
   -3.7082    2.1015    0.0000 C   0  0  0  0  0  0  0  0  0  0  0  0
   -2.2082    2.1015    0.0000 C   0  0  0  0  0  0  0  0  0  0  0  0
   -1.5574    3.4529    0.0000 C   0  0  0  0  0  0  0  0  0  0  0  0
   -0.0950    3.7867    0.0000 C   0  0  0  0  0  0  0  0  0  0  0  0
    1.0777    2.8515    0.0000 C   0  0  0  0  0  0  0  0  0  0  0  0
    1.0777    1.3515    0.0000 C   0  0  0  0  0  0  0  0  0  0  0  0
    1.7286    0.0000    0.0000 C   0  0  0  0  0  0  0  0  0  0  0  0
    1.0777   -1.3515    0.0000 C   0  0  0  0  0  0  0  0  0  0  0  0
   -0.3846   -1.6852    0.0000 C   0  0  0  0  0  0  0  0  0  0  0  0
   -1.5574   -0.7500    0.0000 C   0  0  0  0  0  0  0  0  0  0  0  0
   -1.5574    0.7500    0.0000 C   0  0  0  0  0  0  0  0  0  0  0  0
   -0.3846    1.6852    0.0000 C   0  0  0  0  0  0  0  0  0  0  0  0
   -0.7184    3.1476    0.0000 O   0  0  0  0  0  0  0  0  0  0  0  0
   -5.9582    3.4005    0.0000 C   0  0  0  0  0  0  0  0  0  0  0  0
   -6.7082    4.6995    0.0000 C   0  0  0  0  0  0  0  0  0  0  0  0
  1  2  1  0
  2  3  2  0
  2  4  1  0
  4  5  1  0
  5  6  1  0
  6  7  1  0
  7  8  1  0
  8  9  1  0
  9 10  2  0
 10 11  1  0
 11 12  2  0
 12 13  1  0
 13 14  2  0
 14 15  1  0
 15 16  2  0
 16 17  1  0
 17 18  2  0
 18 19  1  0
 19 20  2  0
  7 21  1  0
 21 22  1  0
 22  4  1  0
 18  9  1  0
 19 13  1  0
M  END
>  <smiles>  (1) 
CC(=O)N1CCC(Cc2cccc3ccccc2c3=O)CC1

$$$$
