
     RDKit          2D

 24 26  0  0  0  0  0  0  0  0999 V2000
   10.5663   -1.9906    0.0000 C   0  0  0  0  0  0  0  0  0  0  0  0
   10.5663   -0.4906    0.0000 C   0  0  0  0  0  0  0  0  0  0  0  0
   11.8654    0.2594    0.0000 O   0  0  0  0  0  0  0  0  0  0  0  0
    9.2673    0.2594    0.0000 N   0  0  0  0  0  0  0  0  0  0  0  0
    7.9682   -0.4906    0.0000 C   0  0  0  0  0  0  0  0  0  0  0  0
    6.6692    0.2594    0.0000 C   0  0  0  0  0  0  0  0  0  0  0  0
    6.6692    1.7594    0.0000 N   0  0  0  0  0  0  0  0  0  0  0  0
    5.3702    2.5094    0.0000 C   0  0  0  0  0  0  0  0  0  0  0  0
    5.3702    4.0094    0.0000 O   0  0  0  0  0  0  0  0  0  0  0  0
    4.0711    1.7594    0.0000 C   0  0  0  0  0  0  0  0  0  0  0  0
    4.4248    0.3017    0.0000 C   0  0  0  0  0  0  0  0  0  0  0  0
    3.9342   -1.1158    0.0000 C   0  0  0  0  0  0  0  0  0  0  0  0
    2.7551   -2.0431    0.0000 C   0  0  0  0  0  0  0  0  0  0  0  0
    0.7500   -1.2990    0.0000 C   0  0  0  0  0  0  0  0  0  0  0  0
    1.5000    0.0000    0.0000 C   0  0  0  0  0  0  0  0  0  0  0  0
    0.7500    1.2990    0.0000 C   0  0  0  0  0  0  0  0  0  0  0  0
   -0.7500    1.2990    0.0000 C   0  0  0  0  0  0  0  0  0  0  0  0
   -1.5000    0.0000    0.0000 C   0  0  0  0  0  0  0  0  0  0  0  0
   -0.7500   -1.2990    0.0000 C   0  0  0  0  0  0  0  0  0  0  0  0
    0.1201    2.5209    0.0000 O   0  0  0  0  0  0  0  0  0  0  0  0
    1.5126    3.0784    0.0000 C   0  0  0  0  0  0  0  0  0  0  0  0
    2.9855    2.7945    0.0000 O   0  0  0  0  0  0  0  0  0  0  0  0
    7.9682    2.5094    0.0000 C   0  0  0  0  0  0  0  0  0  0  0  0
    9.2673    1.7594    0.0000 C   0  0  0  0  0  0  0  0  0  0  0  0
  1  2  1  0
  2  3  2  0
  2  4  1  0
  4  5  1  0
  5  6  1  0
  6  7  1  0
  7  8  1  0
  8  9  2  0
  8 10  1  0
 10 11  2  0
 11 12  1  0
 12 13  2  0
 13 14  1  0
 14 15  2  0
 15 16  1  0
 16 17  2  0
 17 18  1  0
 18 19  2  0
 17 20  1  0
 20 21  1  0
 21 22  1  0
  7 23  1  0
 23 24  1  0
 24  4  1  0
 22 10  1  0
 19 14  1  0
M  END
>  <smiles>  (1) 
CC(=O)N1CCN(C(=O)C2=CC=Cc3ccc(cc3)OCO2)CC1

$$$$
