
     RDKit          2D

 20 21  0  0  0  0  0  0  0  0999 V2000
    5.1279  -11.1096    0.0000 C   0  0  0  0  0  0  0  0  0  0  0  0
    4.8932   -9.6281    0.0000 C   0  0  0  0  0  0  0  0  0  0  0  0
    5.9539   -8.5674    0.0000 C   0  0  0  0  0  0  0  0  0  0  0  0
    5.2729   -7.2309    0.0000 C   0  0  0  0  0  0  0  0  0  0  0  0
    5.9539   -5.8944    0.0000 O   0  0  0  0  0  0  0  0  0  0  0  0
    3.7913   -7.4656    0.0000 C   0  0  0  0  0  0  0  0  0  0  0  0
    2.7307   -6.4049    0.0000 C   0  0  0  0  0  0  0  0  0  0  0  0
    1.2818   -6.7931    0.0000 O   0  0  0  0  0  0  0  0  0  0  0  0
    3.1189   -4.9560    0.0000 O   0  0  0  0  0  0  0  0  0  0  0  0
    2.0583   -3.8954    0.0000 C   0  0  0  0  0  0  0  0  0  0  0  0
    2.4465   -2.4465    0.0000 C   0  0  0  0  0  0  0  0  0  0  0  0
    1.3858   -1.3858    0.0000 C   0  0  0  0  0  0  0  0  0  0  0  0
    1.9598    0.0000    0.0000 C   0  0  0  0  0  0  0  0  0  0  0  0
    1.3858    1.3858    0.0000 C   0  0  0  0  0  0  0  0  0  0  0  0
    0.0000    1.9598    0.0000 C   0  0  0  0  0  0  0  0  0  0  0  0
   -1.3858    1.3858    0.0000 C   0  0  0  0  0  0  0  0  0  0  0  0
   -1.9598    0.0000    0.0000 C   0  0  0  0  0  0  0  0  0  0  0  0
   -1.3858   -1.3858    0.0000 C   0  0  0  0  0  0  0  0  0  0  0  0
   -0.0000   -1.9598    0.0000 C   0  0  0  0  0  0  0  0  0  0  0  0
    3.5567   -8.9471    0.0000 C   0  0  0  0  0  0  0  0  0  0  0  0
  1  2  1  0
  2  3  2  0
  3  4  1  0
  4  5  2  0
  4  6  1  0
  6  7  1  0
  7  8  2  0
  7  9  1  0
  9 10  1  0
 10 11  1  0
 11 12  1  0
 12 13  1  0
 13 14  2  0
 14 15  1  0
 15 16  1  0
 16 17  1  0
 17 18  1  0
 18 19  1  0
  6 20  2  0
 20  2  1  0
 19 12  1  0
M  END
>  <smiles>  (1) 
CC1=CC(=O)C(C(=O)OCCC2C=CCCCCC2)=C1

$$$$
