
     RDKit          2D

 19 21  0  0  0  0  0  0  0  0999 V2000
    7.7548    3.5346    0.0000 C   0  0  0  0  0  0  0  0  0  0  0  0
    6.8550    4.7348    0.0000 C   0  0  0  0  0  0  0  0  0  0  0  0
    7.4446    6.1141    0.0000 O   0  0  0  0  0  0  0  0  0  0  0  0
    5.3657    4.5557    0.0000 N   0  0  0  0  0  0  0  0  0  0  0  0
    4.7762    3.1764    0.0000 C   0  0  0  0  0  0  0  0  0  0  0  0
    3.2869    2.9973    0.0000 C   0  0  0  0  0  0  0  0  0  0  0  0
    2.3872    4.1975    0.0000 N   0  0  0  0  0  0  0  0  0  0  0  0
    0.8979    4.0184    0.0000 C   0  0  0  0  0  0  0  0  0  0  0  0
    0.3084    2.6391    0.0000 C   0  0  0  0  0  0  0  0  0  0  0  0
   -1.1540    2.3053    0.0000 C   0  0  0  0  0  0  0  0  0  0  0  0
   -1.5574    0.7500    0.0000 C   0  0  0  0  0  0  0  0  0  0  0  0
   -0.3846    1.6852    0.0000 N   0  0  0  0  0  0  0  0  0  0  0  0
    1.0777    1.3515    0.0000 C   0  0  0  0  0  0  0  0  0  0  0  0
    1.7286    0.0000    0.0000 C   0  0  0  0  0  0  0  0  0  0  0  0
    1.0777   -1.3515    0.0000 C   0  0  0  0  0  0  0  0  0  0  0  0
   -0.3846   -1.6852    0.0000 C   0  0  0  0  0  0  0  0  0  0  0  0
   -1.5574   -0.7500    0.0000 C   0  0  0  0  0  0  0  0  0  0  0  0
    2.9767    5.5768    0.0000 C   0  0  0  0  0  0  0  0  0  0  0  0
    4.4660    5.7559    0.0000 C   0  0  0  0  0  0  0  0  0  0  0  0
  1  2  1  0
  2  3  2  0
  2  4  1  0
  4  5  1  0
  5  6  1  0
  6  7  1  0
  7  8  1  0
  8  9  1  0
  9 10  2  0
 10 11  1  0
 11 12  1  0
 12 13  1  0
 13 14  2  0
 14 15  1  0
 15 16  2  0
 16 17  1  0
  7 18  1  0
 18 19  1  0
 19  4  1  0
 13  9  1  0
 17 11  2  0
M  END
>  <smiles>  (1) 
CC(=O)N1CCN(Cc2cc3[nH]c2=CC=CC=3)CC1

$$$$
