
     RDKit          2D

 27 28  0  0  0  0  0  0  0  0999 V2000
   11.4240   -4.0755    0.0000 C   0  0  0  0  0  0  0  0  0  0  0  0
    9.9751   -4.4638    0.0000 C   0  0  0  0  0  0  0  0  0  0  0  0
    9.5869   -5.9127    0.0000 O   0  0  0  0  0  0  0  0  0  0  0  0
    8.9145   -3.4031    0.0000 N   0  0  0  0  0  0  0  0  0  0  0  0
    7.4656   -3.7913    0.0000 C   0  0  0  0  0  0  0  0  0  0  0  0
    7.0773   -5.2402    0.0000 C   0  0  0  0  0  0  0  0  0  0  0  0
    5.6285   -5.6285    0.0000 C   0  0  0  0  0  0  0  0  0  0  0  0
    4.5678   -4.5678    0.0000 C   0  0  0  0  0  0  0  0  0  0  0  0
    4.9560   -3.1189    0.0000 C   0  0  0  0  0  0  0  0  0  0  0  0
    3.8954   -2.0583    0.0000 C   0  0  0  0  0  0  0  0  0  0  0  0
    4.2836   -0.6094    0.0000 O   0  0  0  0  0  0  0  0  0  0  0  0
    2.4465   -2.4465    0.0000 N   0  0  0  0  0  0  0  0  0  0  0  0
    1.3858   -1.3858    0.0000 C   0  0  0  0  0  0  0  0  0  0  0  0
    1.9598    0.0000    0.0000 C   0  0  0  0  0  0  0  0  0  0  0  0
    1.3858    1.3858    0.0000 C   0  0  0  0  0  0  0  0  0  0  0  0
    0.0000    1.9598    0.0000 C   0  0  0  0  0  0  0  0  0  0  0  0
   -1.3858    1.3858    0.0000 N   0  0  0  0  0  0  0  0  0  0  0  0
   -1.9598    0.0000    0.0000 C   0  0  0  0  0  0  0  0  0  0  0  0
   -1.3858   -1.3858    0.0000 C   0  0  0  0  0  0  0  0  0  0  0  0
   -0.0000   -1.9598    0.0000 C   0  0  0  0  0  0  0  0  0  0  0  0
   -0.0000   -3.4598    0.0000 C   0  0  0  0  0  0  0  0  0  0  0  0
   -1.2990   -4.2098    0.0000 C   0  0  0  0  0  0  0  0  0  0  0  0
   -1.2990   -5.7098    0.0000 S   0  0  0  0  0  0  0  0  0  0  0  0
   -2.7990   -5.7098    0.0000 O   0  0  0  0  0  0  0  0  0  0  0  0
    0.2010   -5.7098    0.0000 O   0  0  0  0  0  0  0  0  0  0  0  0
   -1.2990   -7.2098    0.0000 O   0  0  0  0  0  0  0  0  0  0  0  0
    6.4049   -2.7307    0.0000 N   0  0  0  0  0  0  0  0  0  0  0  0
  1  2  1  0
  2  3  2  0
  2  4  1  0
  4  5  1  0
  5  6  2  0
  6  7  1  0
  7  8  2  0
  8  9  1  0
  9 10  1  0
 10 11  2  0
 10 12  1  0
 12 13  1  0
 13 14  1  0
 14 15  1  0
 15 16  1  0
 16 17  1  0
 17 18  1  0
 18 19  1  0
 19 20  1  0
 20 21  1  0
 21 22  1  0
 22 23  1  0
 23 24  2  0
 23 25  2  0
 23 26  1  0
  9 27  2  0
 27  5  1  0
 20 13  1  0
M  END
>  <smiles>  (1) 
CC(=O)Nc1cccc(C(=O)NC2CCCNCCC2CCS(=O)(=O)O)n1

$$$$
