
     RDKit          2D

 16 17  0  0  0  0  0  0  0  0999 V2000
   -1.8902   -6.8784    0.0000 C   0  0  0  0  0  0  0  0  0  0  0  0
   -0.7496   -5.9043    0.0000 C   0  0  0  0  0  0  0  0  0  0  0  0
    0.6644   -6.4050    0.0000 O   0  0  0  0  0  0  0  0  0  0  0  0
   -1.0229   -4.4294    0.0000 N   0  0  0  0  0  0  0  0  0  0  0  0
    0.1177   -3.4552    0.0000 C   0  0  0  0  0  0  0  0  0  0  0  0
    1.5762   -3.8054    0.0000 C   0  0  0  0  0  0  0  0  0  0  0  0
    2.3600   -2.5264    0.0000 C   0  0  0  0  0  0  0  0  0  0  0  0
    1.3858   -1.3858    0.0000 C   0  0  0  0  0  0  0  0  0  0  0  0
    1.9598    0.0000    0.0000 C   0  0  0  0  0  0  0  0  0  0  0  0
    1.3858    1.3858    0.0000 C   0  0  0  0  0  0  0  0  0  0  0  0
    2.4465    2.4465    0.0000 C   0  0  0  0  0  0  0  0  0  0  0  0
    0.0000    1.9598    0.0000 C   0  0  0  0  0  0  0  0  0  0  0  0
   -1.3858    1.3858    0.0000 C   0  0  0  0  0  0  0  0  0  0  0  0
   -1.9598    0.0000    0.0000 C   0  0  0  0  0  0  0  0  0  0  0  0
   -1.3858   -1.3858    0.0000 C   0  0  0  0  0  0  0  0  0  0  0  0
   -0.0000   -1.9598    0.0000 C   0  0  0  0  0  0  0  0  0  0  0  0
  1  2  1  0
  2  3  2  0
  2  4  1  0
  4  5  1  0
  5  6  2  0
  6  7  1  0
  7  8  2  0
  8  9  1  0
  9 10  1  0
 10 11  1  0
 10 12  2  0
 12 13  1  0
 13 14  2  0
 14 15  1  0
 15 16  2  0
 16  5  1  0
 16  8  1  0
M  END
>  <smiles>  (1) 
CC(=O)NC1=CC=C2CC(C)=CC=CC=C21

$$$$
