
     RDKit          2D

 13 13  0  0  0  0  0  0  0  0999 V2000
    6.2286    2.5981    0.0000 C   0  0  0  0  0  0  0  0  0  0  0  0
    5.4786    1.2990    0.0000 C   0  0  0  0  0  0  0  0  0  0  0  0
    6.2286   -0.0000    0.0000 O   0  0  0  0  0  0  0  0  0  0  0  0
    3.9786    1.2990    0.0000 N   0  0  0  0  0  0  0  0  0  0  0  0
    3.2286   -0.0000    0.0000 C   0  0  0  0  0  0  0  0  0  0  0  0
    1.7286    0.0000    0.0000 C   0  0  0  0  0  0  0  0  0  0  0  0
    1.0777    1.3515    0.0000 C   0  0  0  0  0  0  0  0  0  0  0  0
   -0.3846    1.6852    0.0000 N   0  0  0  0  0  0  0  0  0  0  0  0
   -1.5574    0.7500    0.0000 C   0  0  0  0  0  0  0  0  0  0  0  0
   -1.5574   -0.7500    0.0000 C   0  0  0  0  0  0  0  0  0  0  0  0
   -0.3846   -1.6852    0.0000 C   0  0  0  0  0  0  0  0  0  0  0  0
    1.0777   -1.3515    0.0000 C   0  0  0  0  0  0  0  0  0  0  0  0
    2.0130   -2.5242    0.0000 C   0  0  0  0  0  0  0  0  0  0  0  0
  1  2  1  0
  2  3  2  0
  2  4  1  0
  4  5  1  0
  5  6  1  0
  6  7  2  0
  7  8  1  0
  8  9  2  0
  9 10  1  0
 10 11  1  0
 11 12  2  0
 12 13  1  0
 12  6  1  0
M  END
>  <smiles>  (1) 
CC(=O)NCC1=CN=CCC=C1C

$$$$
