2bx4_CC(=O)N1CCN(C(=O)c2ccccc2F)CC1_uff_E=233.40_0
 OpenBabel04252003393D

 18 19  0  0  0  0  0  0  0  0999 V2000
   16.6900    9.4600   19.5050 C   0  0  0  0  0
   17.0780    9.5590   18.0610 C   0  0  0  0  0
   18.1690   10.0400   17.7860 O   0  0  0  0  0
   16.2430    9.1270   17.0690 N   0  0  0  0  0
   14.9580    8.5620   17.4260 C   0  0  0  0  0
   14.0390    8.0840   16.3030 C   0  0  0  0  0
   14.4890    8.2160   14.9280 N   0  0  0  0  0
   13.6400    7.7770   13.9280 C   0  0  0  0  0
   12.5580    7.3020   14.2470 O   0  0  0  0  0
   15.7770    8.7830   14.5950 C   0  0  0  0  0
   16.6950    9.2590   15.7030 C   0  0  0  0  0
   13.9700    7.8470   12.4460 C   0  0  0  0  0
   13.3530    8.7830   11.5960 C   0  0  0  0  0
   13.6540    8.8490   10.2360 C   0  0  0  0  0
   14.5860    7.9730    9.6890 C   0  0  0  0  0
   15.2150    7.0330   10.5050 C   0  0  0  0  0
   14.9180    6.9620   11.8700 C   0  0  0  0  0
   15.5580    6.0290   12.6190 F   0  0  0  0  0
  2  1  1  0  0  0
  4  2  1  0  0  0
  3  2  2  0  0  0
 11  4  2  0  0  0
  4  5  1  0  0  0
  6  5  2  0  0  0
  7  6  1  0  0  0
  8  7  1  0  0  0
 10  7  2  0  0  0
 12  8  1  0  0  0
  8  9  2  0  0  0
 10 11  1  0  0  0
 13 12  2  0  0  0
 17 12  1  0  0  0
 14 13  1  0  0  0
 15 14  2  0  0  0
 15 16  1  0  0  0
 16 17  2  0  0  0
 17 18  1  0  0  0
M  RAD  9   1   4   5   2   6   2  10   2  11   2  13   2  14   2  15   2  16   2
M  END
>  <Vina Binding Affinity>
-6.0

$$$$
